data_image0
_cell_length_a       41.025
_cell_length_b       41.025
_cell_length_c       44.301
_cell_angle_alpha    90
_cell_angle_beta     90
_cell_angle_gamma    120

_symmetry_space_group_name_H-M    "P 1"
_symmetry_int_tables_number       1

loop_
  _symmetry_equiv_pos_as_xyz
  'x, y, z'

loop_
  _atom_site_label
  _atom_site_occupancy
  _atom_site_fract_x
  _atom_site_fract_y
  _atom_site_fract_z
  _atom_site_thermal_displace_type
  _atom_site_B_iso_or_equiv
  _atom_site_type_symbol
  O1       1.0000 0.46250  0.45720  0.49847  Biso   1.000  O 
  O2       1.0000 0.41672  0.50298  0.52778  Biso   1.000  O 
  O3       1.0000 0.48740  0.52790  0.51314  Biso   1.000  O 
  O4       1.0000 0.39180  0.43230  0.51314  Biso   1.000  O 
  O5       1.0000 0.48740  0.64673  0.51314  Biso   1.000  O 
  O6       1.0000 0.46422  0.57571  0.52485  Biso   1.000  O 
  O7       1.0000 0.46996  0.53564  0.56868  Biso   1.000  O 
  O8       1.0000 0.40927  0.42453  0.45757  Biso   1.000  O 
  Si1      1.0000 0.49507  0.50000  0.49260  Biso   1.000  Si
  Si2      1.0000 0.45962  0.53574  0.60372  Biso   1.000  Si
  Si3      1.0000 0.41970  0.42463  0.49260  Biso   1.000  Si
  Si4      1.0000 0.49507  0.68230  0.49260  Biso   1.000  Si
  Si5      1.0000 0.38416  0.46018  0.53365  Biso   1.000  Si
  Si6      1.0000 0.45952  0.61121  0.53365  Biso   1.000  Si
  Si7      1.0000 0.45952  0.53554  0.53365  Biso   1.000  Si
  O9       1.0000 0.45510  0.46463  0.41374  Biso   1.000  O 
  O10      1.0000 0.46250  0.35920  0.49847  Biso   1.000  O 
  O11      1.0000 0.41500  0.38447  0.50140  Biso   1.000  O 
  Si8      1.0000 0.41970  0.34897  0.49260  Biso   1.000  Si
  Si9      1.0000 0.49507  0.34897  0.49260  Biso   1.000  Si
  Si10     1.0000 0.41960  0.42443  0.42254  Biso   1.000  Si
  O12      1.0000 0.56050  0.45720  0.49847  Biso   1.000  O 
  O13      1.0000 0.49519  0.54341  0.62425  Biso   1.000  O 
  O14      1.0000 0.61402  0.54341  0.62425  Biso   1.000  O 
  O15      1.0000 0.60630  0.52790  0.51314  Biso   1.000  O 
  O16      1.0000 0.53527  0.50470  0.50140  Biso   1.000  O 
  O17      1.0000 0.56618  0.56659  0.63596  Biso   1.000  O 
  O18      1.0000 0.49517  0.51043  0.45757  Biso   1.000  O 
  O19      1.0000 0.63149  0.53564  0.56868  Biso   1.000  O 
  O20      1.0000 0.58107  0.51043  0.45757  Biso   1.000  O 
  O21      1.0000 0.49517  0.67197  0.45757  Biso   1.000  O 
  Si11     1.0000 0.57074  0.42463  0.49260  Biso   1.000  Si
  Si12     1.0000 0.64192  0.53574  0.60372  Biso   1.000  Si
  Si13     1.0000 0.57074  0.50000  0.49260  Biso   1.000  Si
  Si14     1.0000 0.60638  0.57129  0.64476  Biso   1.000  Si
  Si15     1.0000 0.64182  0.53554  0.53365  Biso   1.000  Si
  Si16     1.0000 0.53071  0.57129  0.64476  Biso   1.000  Si
  O22      1.0000 0.52784  0.48987  0.41667  Biso   1.000  O 
  O23      1.0000 0.50291  0.53562  0.40203  Biso   1.000  O 
  O24      1.0000 0.50291  0.65452  0.40203  Biso   1.000  O 
  O25      1.0000 0.52611  0.60669  0.39029  Biso   1.000  O 
  Si17     1.0000 0.53081  0.57119  0.38149  Biso   1.000  Si
  Si18     1.0000 0.53081  0.64686  0.38149  Biso   1.000  Si
  Si19     1.0000 0.49527  0.68240  0.42254  Biso   1.000  Si
  Si20     1.0000 0.57064  0.50010  0.42254  Biso   1.000  Si
  Si21     1.0000 0.49527  0.50010  0.42254  Biso   1.000  Si
  O26      1.0000 0.53524  0.38443  0.50140  Biso   1.000  O 
