data_image0
_cell_length_a       35.0012
_cell_length_b       38.5916
_cell_length_c       41.0876
_cell_angle_alpha    105.72
_cell_angle_beta     100.19
_cell_angle_gamma    97.02

_symmetry_space_group_name_H-M    "P 1"
_symmetry_int_tables_number       1

loop_
  _symmetry_equiv_pos_as_xyz
  'x, y, z'

loop_
  _atom_site_label
  _atom_site_occupancy
  _atom_site_fract_x
  _atom_site_fract_y
  _atom_site_fract_z
  _atom_site_thermal_displace_type
  _atom_site_B_iso_or_equiv
  _atom_site_type_symbol
  Si1      1.0000 0.56000  0.36400  0.45590  Biso   1.000  Si
  Si2      1.0000 0.53690  0.46030  0.61440  Biso   1.000  Si
  Si3      1.0000 0.56203  0.38678  0.61070  Biso   1.000  Si
  Si4      1.0000 0.53488  0.43753  0.45960  Biso   1.000  Si
  Si5      1.0000 0.56645  0.30365  0.49098  Biso   1.000  Si
  Si6      1.0000 0.53045  0.52065  0.57933  Biso   1.000  Si
  Si7      1.0000 0.50000  0.50000  0.50000  Biso   1.000  Si
  Si8      1.0000 0.59690  0.32430  0.57030  Biso   1.000  Si
  Si9      1.0000 0.59140  0.49125  0.43848  Biso   1.000  Si
  O1       1.0000 0.56220  0.34245  0.48453  Biso   1.000  O 
  O2       1.0000 0.53470  0.48185  0.58578  Biso   1.000  O 
  O3       1.0000 0.50125  0.42423  0.42438  Biso   1.000  O 
  O4       1.0000 0.52338  0.53130  0.48805  Biso   1.000  O 
  O5       1.0000 0.57353  0.45978  0.45333  Biso   1.000  O 
  O6       1.0000 0.45418  0.49105  0.48058  Biso   1.000  O 
  O7       1.0000 0.54588  0.40230  0.47048  Biso   1.000  O 
  O8       1.0000 0.55103  0.42200  0.59983  Biso   1.000  O 
  O9       1.0000 0.59320  0.31035  0.52905  Biso   1.000  O 
  O10      1.0000 0.50370  0.51395  0.54125  Biso   1.000  O 
  O11      1.0000 0.58718  0.53063  0.46238  Biso   1.000  O 
  O12      1.0000 0.51885  0.46353  0.49003  Biso   1.000  O 
  O13      1.0000 0.57805  0.36078  0.58028  Biso   1.000  O 
  O14      1.0000 0.44355  0.46020  0.41348  Biso   1.000  O 
  Si10     1.0000 0.53690  0.46030  0.36440  Biso   1.000  Si
  Si11     1.0000 0.47028  0.43315  0.39515  Biso   1.000  Si
  O15      1.0000 0.56780  0.48480  0.39935  Biso   1.000  O 
  O16      1.0000 0.49388  0.45240  0.37255  Biso   1.000  O 
  Si12     1.0000 0.56645  0.55365  0.49098  Biso   1.000  Si
  Si13     1.0000 0.59690  0.57430  0.57030  Biso   1.000  Si
  Si14     1.0000 0.50550  0.58305  0.63183  Biso   1.000  Si
  Si15     1.0000 0.42458  0.60665  0.62450  Biso   1.000  Si
  O17      1.0000 0.57353  0.54300  0.58225  Biso   1.000  O 
  O18      1.0000 0.45960  0.58433  0.63135  Biso   1.000  O 
  O19      1.0000 0.59320  0.56035  0.52905  Biso   1.000  O 
  O20      1.0000 0.50973  0.54368  0.60793  Biso   1.000  O 
  Si16     1.0000 0.34140  0.49125  0.43848  Biso   1.000  Si
  Si17     1.0000 0.42233  0.46765  0.44580  Biso   1.000  Si
  O21      1.0000 0.38730  0.48998  0.43895  Biso   1.000  O 
  O22      1.0000 0.33718  0.53063  0.46238  Biso   1.000  O 
  Si18     1.0000 0.31645  0.55365  0.49098  Biso   1.000  Si
  Si19     1.0000 0.34690  0.57430  0.57030  Biso   1.000  Si
  O23      1.0000 0.39273  0.58325  0.58973  Biso   1.000  O 
  O24      1.0000 0.34320  0.56035  0.52905  Biso   1.000  O 
