data_image0
_cell_length_a       27.35
_cell_length_b       27.35
_cell_length_c       29.534
_cell_angle_alpha    90
_cell_angle_beta     90
_cell_angle_gamma    120

_symmetry_space_group_name_H-M    "P 1"
_symmetry_int_tables_number       1

loop_
  _symmetry_equiv_pos_as_xyz
  'x, y, z'

loop_
  _atom_site_label
  _atom_site_occupancy
  _atom_site_fract_x
  _atom_site_fract_y
  _atom_site_fract_z
  _atom_site_thermal_displace_type
  _atom_site_B_iso_or_equiv
  _atom_site_type_symbol
  O1       1.0000 0.40200  0.45100  0.43865  Biso   1.000  O 
  O2       1.0000 0.43985  0.37975  0.43425  Biso   1.000  O 
  Si1      1.0000 0.38665  0.49985  0.44745  Biso   1.000  Si
  Si2      1.0000 0.38665  0.38680  0.44745  Biso   1.000  Si
  O3       1.0000 0.45100  0.40200  0.56135  Biso   1.000  O 
  O4       1.0000 0.26467  0.38233  0.89468  Biso   1.000  O 
  O5       1.0000 0.38233  0.26467  0.60532  Biso   1.000  O 
  O6       1.0000 0.40200  0.45100  0.93865  Biso   1.000  O 
  O7       1.0000 0.32168  0.32172  0.75002  Biso   1.000  O 
  O8       1.0000 0.34495  0.33330  0.58335  Biso   1.000  O 
  O9       1.0000 0.33337  0.34498  0.91668  Biso   1.000  O 
  O10      1.0000 0.33337  0.48838  0.91668  Biso   1.000  O 
  O11      1.0000 0.48835  0.33330  0.58335  Biso   1.000  O 
  O12      1.0000 0.32168  0.49997  0.75002  Biso   1.000  O 
  O13      1.0000 0.39348  0.28692  0.73242  Biso   1.000  O 
  O14      1.0000 0.37975  0.43990  0.56575  Biso   1.000  O 
  O15      1.0000 0.43985  0.37975  0.93425  Biso   1.000  O 
  O16      1.0000 0.28692  0.39343  0.76758  Biso   1.000  O 
  O17      1.0000 0.33333  0.29552  0.66667  Biso   1.000  O 
  O18      1.0000 0.37115  0.37115  0.50000  Biso   1.000  O 
  O19      1.0000 0.29552  0.33333  0.83333  Biso   1.000  O 
  O20      1.0000 0.46218  0.29552  0.66667  Biso   1.000  O 
  O21      1.0000 0.29552  0.46218  0.83333  Biso   1.000  O 
  Al1      1.0000 0.33318  0.27987  0.71922  Biso   1.000  Al
  Si3      1.0000 0.38680  0.38665  0.55255  Biso   1.000  Si
  Si4      1.0000 0.28002  0.33348  0.88588  Biso   1.000  Si
  Al2      1.0000 0.44668  0.27987  0.71922  Biso   1.000  Al
  Si5      1.0000 0.28002  0.44653  0.88588  Biso   1.000  Si
  Si6      1.0000 0.49985  0.38665  0.55255  Biso   1.000  Si
  Si7      1.0000 0.44653  0.28002  0.61412  Biso   1.000  Si
  Al3      1.0000 0.27987  0.44668  0.78078  Biso   1.000  Al
  Si8      1.0000 0.38665  0.49985  0.94745  Biso   1.000  Si
  Al4      1.0000 0.27987  0.33318  0.78078  Biso   1.000  Al
  Si9      1.0000 0.38665  0.38680  0.94745  Biso   1.000  Si
  Si10     1.0000 0.33348  0.28002  0.61412  Biso   1.000  Si
  O22      1.0000 0.43990  0.56015  0.43425  Biso   1.000  O 
  O23      1.0000 0.45100  0.54900  0.56135  Biso   1.000  O 
  O24      1.0000 0.38233  0.61767  0.60532  Biso   1.000  O 
  O25      1.0000 0.48835  0.65505  0.58335  Biso   1.000  O 
  O26      1.0000 0.34495  0.51165  0.58335  Biso   1.000  O 
  O27      1.0000 0.39343  0.60652  0.73242  Biso   1.000  O 
  O28      1.0000 0.43990  0.56015  0.93425  Biso   1.000  O 
  O29      1.0000 0.46218  0.66667  0.66667  Biso   1.000  O 
  O30      1.0000 0.37115  0.50000  0.50000  Biso   1.000  O 
  O31      1.0000 0.33333  0.53782  0.66667  Biso   1.000  O 
  Si11     1.0000 0.49985  0.61320  0.55255  Biso   1.000  Si
  Al5      1.0000 0.44668  0.66682  0.71922  Biso   1.000  Al
  Si12     1.0000 0.38680  0.50015  0.55255  Biso   1.000  Si
  Al6      1.0000 0.33318  0.55332  0.71922  Biso   1.000  Al
  Si13     1.0000 0.33348  0.55347  0.61412  Biso   1.000  Si
  Si14     1.0000 0.44653  0.66652  0.61412  Biso   1.000  Si
  O32      1.0000 0.54900  0.45100  0.43865  Biso   1.000  O 
  Si15     1.0000 0.50015  0.38680  0.44745  Biso   1.000  Si
  Si16     1.0000 0.61320  0.49985  0.44745  Biso   1.000  Si
  O33      1.0000 0.61767  0.38233  0.89468  Biso   1.000  O 
  O34      1.0000 0.54900  0.45100  0.93865  Biso   1.000  O 
  O35      1.0000 0.65502  0.48838  0.91668  Biso   1.000  O 
  O36      1.0000 0.67828  0.49997  0.75002  Biso   1.000  O 
  O37      1.0000 0.51162  0.34498  0.91668  Biso   1.000  O 
  O38      1.0000 0.50003  0.32172  0.75002  Biso   1.000  O 
  O39      1.0000 0.56010  0.43985  0.56575  Biso   1.000  O 
  O40      1.0000 0.60657  0.39348  0.76758  Biso   1.000  O 
  O41      1.0000 0.66667  0.46218  0.83333  Biso   1.000  O 
  O42      1.0000 0.53782  0.33333  0.83333  Biso   1.000  O 
  O43      1.0000 0.50000  0.37115  0.50000  Biso   1.000  O 
  Si17     1.0000 0.66652  0.44653  0.88588  Biso   1.000  Si
  Si18     1.0000 0.55347  0.33348  0.88588  Biso   1.000  Si
  Si19     1.0000 0.50015  0.38680  0.94745  Biso   1.000  Si
  Al7      1.0000 0.55332  0.33318  0.78078  Biso   1.000  Al
  Si20     1.0000 0.61320  0.49985  0.94745  Biso   1.000  Si
  Al8      1.0000 0.66682  0.44668  0.78078  Biso   1.000  Al
  O44      1.0000 0.54900  0.59800  0.43865  Biso   1.000  O 
  O45      1.0000 0.62025  0.56010  0.43425  Biso   1.000  O 
  Si21     1.0000 0.61320  0.61335  0.44745  Biso   1.000  Si
  Si22     1.0000 0.50015  0.61335  0.44745  Biso   1.000  Si
  O46      1.0000 0.61767  0.73533  0.89468  Biso   1.000  O 
  O47      1.0000 0.59800  0.54900  0.56135  Biso   1.000  O 
  O48      1.0000 0.54900  0.59800  0.93865  Biso   1.000  O 
  O49      1.0000 0.73533  0.61767  0.60532  Biso   1.000  O 
  O50      1.0000 0.51162  0.66663  0.91668  Biso   1.000  O 
  O51      1.0000 0.66670  0.51165  0.58335  Biso   1.000  O 
  O52      1.0000 0.50003  0.67832  0.75002  Biso   1.000  O 
  O53      1.0000 0.67828  0.67832  0.75002  Biso   1.000  O 
  O54      1.0000 0.66670  0.65505  0.58335  Biso   1.000  O 
  O55      1.0000 0.65502  0.66663  0.91668  Biso   1.000  O 
  O56      1.0000 0.56015  0.62025  0.56575  Biso   1.000  O 
  O57      1.0000 0.71308  0.60657  0.73242  Biso   1.000  O 
  O58      1.0000 0.60652  0.71308  0.76758  Biso   1.000  O 
  O59      1.0000 0.62025  0.56010  0.93425  Biso   1.000  O 
  O60      1.0000 0.50000  0.62885  0.50000  Biso   1.000  O 
  O61      1.0000 0.70448  0.53782  0.66667  Biso   1.000  O 
  O62      1.0000 0.53782  0.70448  0.83333  Biso   1.000  O 
  O63      1.0000 0.62885  0.50000  0.50000  Biso   1.000  O 
  O64      1.0000 0.70448  0.66667  0.66667  Biso   1.000  O 
  O65      1.0000 0.62885  0.62885  0.50000  Biso   1.000  O 
  O66      1.0000 0.66667  0.70448  0.83333  Biso   1.000  O 
  Al9      1.0000 0.72013  0.55332  0.71922  Biso   1.000  Al
  Si23     1.0000 0.55347  0.71998  0.88588  Biso   1.000  Si
  Si24     1.0000 0.61335  0.50015  0.55255  Biso   1.000  Si
  Al10     1.0000 0.72013  0.66682  0.71922  Biso   1.000  Al
  Si25     1.0000 0.61335  0.61320  0.55255  Biso   1.000  Si
  Si26     1.0000 0.66652  0.71998  0.88588  Biso   1.000  Si
  Al11     1.0000 0.66682  0.72013  0.78078  Biso   1.000  Al
  Si27     1.0000 0.61320  0.61335  0.94745  Biso   1.000  Si
  Si28     1.0000 0.71998  0.66652  0.61412  Biso   1.000  Si
  Si29     1.0000 0.71998  0.55347  0.61412  Biso   1.000  Si
  Al12     1.0000 0.55332  0.72013  0.78078  Biso   1.000  Al
  Si30     1.0000 0.50015  0.61335  0.94745  Biso   1.000  Si
