data_image0
_cell_length_a       27.35
_cell_length_b       27.35
_cell_length_c       29.534
_cell_angle_alpha    90
_cell_angle_beta     90
_cell_angle_gamma    120

_symmetry_space_group_name_H-M    "P 1"
_symmetry_int_tables_number       1

loop_
  _symmetry_equiv_pos_as_xyz
  'x, y, z'

loop_
  _atom_site_label
  _atom_site_occupancy
  _atom_site_fract_x
  _atom_site_fract_y
  _atom_site_fract_z
  _atom_site_thermal_displace_type
  _atom_site_B_iso_or_equiv
  _atom_site_type_symbol
  O1       1.0000 0.40200  0.45100  0.43865  Biso   1.000  O 
  O2       1.0000 0.43985  0.37975  0.43425  Biso   1.000  O 
  Si1      1.0000 0.38665  0.49985  0.44745  Biso   1.000  Si
  Si2      1.0000 0.38665  0.38680  0.44745  Biso   1.000  Si
  O3       1.0000 0.45100  0.40200  0.56135  Biso   1.000  O 
  O4       1.0000 0.37975  0.43990  0.56575  Biso   1.000  O 
  O5       1.0000 0.37115  0.37115  0.50000  Biso   1.000  O 
  Si3      1.0000 0.38680  0.38665  0.55255  Biso   1.000  Si
  Si4      1.0000 0.49985  0.38665  0.55255  Biso   1.000  Si
  O6       1.0000 0.43990  0.56015  0.43425  Biso   1.000  O 
  O7       1.0000 0.45100  0.54900  0.56135  Biso   1.000  O 
  O8       1.0000 0.37115  0.50000  0.50000  Biso   1.000  O 
  Si5      1.0000 0.49985  0.61320  0.55255  Biso   1.000  Si
  Si6      1.0000 0.38680  0.50015  0.55255  Biso   1.000  Si
  O9       1.0000 0.54900  0.45100  0.43865  Biso   1.000  O 
  Si7      1.0000 0.50015  0.38680  0.44745  Biso   1.000  Si
  Si8      1.0000 0.61320  0.49985  0.44745  Biso   1.000  Si
  O10      1.0000 0.56010  0.43985  0.56575  Biso   1.000  O 
  O11      1.0000 0.50000  0.37115  0.50000  Biso   1.000  O 
  O12      1.0000 0.54900  0.59800  0.43865  Biso   1.000  O 
  O13      1.0000 0.62025  0.56010  0.43425  Biso   1.000  O 
  Si9      1.0000 0.61320  0.61335  0.44745  Biso   1.000  Si
  Si10     1.0000 0.50015  0.61335  0.44745  Biso   1.000  Si
  O14      1.0000 0.59800  0.54900  0.56135  Biso   1.000  O 
  O15      1.0000 0.56015  0.62025  0.56575  Biso   1.000  O 
  O16      1.0000 0.50000  0.62885  0.50000  Biso   1.000  O 
  O17      1.0000 0.62885  0.50000  0.50000  Biso   1.000  O 
  O18      1.0000 0.62885  0.62885  0.50000  Biso   1.000  O 
  Si11     1.0000 0.61335  0.50015  0.55255  Biso   1.000  Si
  Si12     1.0000 0.61335  0.61320  0.55255  Biso   1.000  Si
