data_image0
_cell_length_a       37.855
_cell_length_b       36.296
_cell_length_c       51.864
_cell_angle_alpha    90
_cell_angle_beta     90
_cell_angle_gamma    90

_symmetry_space_group_name_H-M    "P 1"
_symmetry_int_tables_number       1

loop_
  _symmetry_equiv_pos_as_xyz
  'x, y, z'

loop_
  _atom_site_label
  _atom_site_occupancy
  _atom_site_fract_x
  _atom_site_fract_y
  _atom_site_fract_z
  _atom_site_thermal_displace_type
  _atom_site_B_iso_or_equiv
  _atom_site_type_symbol
  Si1      1.0000 0.49911  0.49778  0.50000  Biso   1.000  Si
  O1       1.0000 0.49911  0.49383  0.53090  Biso   1.000  O 
  Si2      1.0000 0.49911  0.49783  0.56175  Biso   1.000  Si
  O2       1.0000 0.49911  0.54063  0.56980  Biso   1.000  O 
  Si3      1.0000 0.49911  0.58343  0.56175  Biso   1.000  Si
  O3       1.0000 0.49911  0.58743  0.53090  Biso   1.000  O 
  Si4      1.0000 0.49911  0.58348  0.50000  Biso   1.000  Si
  O4       1.0000 0.49911  0.54063  0.49205  Biso   1.000  O 
  O5       1.0000 0.53389  0.47838  0.48840  Biso   1.000  O 
  Si5      1.0000 0.55817  0.44308  0.48220  Biso   1.000  Si
  O6       1.0000 0.55199  0.43073  0.45270  Biso   1.000  O 
  Si6      1.0000 0.53991  0.44498  0.42465  Biso   1.000  Si
  O7       1.0000 0.49911  0.45743  0.42555  Biso   1.000  O 
  Si7      1.0000 0.45831  0.44498  0.42465  Biso   1.000  Si
  O8       1.0000 0.44623  0.43073  0.45270  Biso   1.000  O 
  Si8      1.0000 0.44005  0.44308  0.48220  Biso   1.000  Si
  O9       1.0000 0.46433  0.47838  0.48840  Biso   1.000  O 
  O10      1.0000 0.54721  0.40958  0.50090  Biso   1.000  O 
  Si9      1.0000 0.53993  0.38888  0.52775  Biso   1.000  Si
  O11      1.0000 0.54911  0.41563  0.55150  Biso   1.000  O 
  Si10     1.0000 0.55829  0.44238  0.57525  Biso   1.000  Si
  O12      1.0000 0.53383  0.47863  0.57360  Biso   1.000  O 
  O13      1.0000 0.49911  0.37668  0.52930  Biso   1.000  O 
  Si11     1.0000 0.45829  0.38888  0.52775  Biso   1.000  Si
  O14      1.0000 0.45101  0.40958  0.50090  Biso   1.000  O 
  O15      1.0000 0.46439  0.47863  0.57360  Biso   1.000  O 
  Si12     1.0000 0.43993  0.44238  0.57525  Biso   1.000  Si
  O16      1.0000 0.44911  0.41563  0.55150  Biso   1.000  O 
  O17      1.0000 0.43393  0.47938  0.41645  Biso   1.000  O 
  Si13     1.0000 0.39911  0.49693  0.40355  Biso   1.000  Si
  O18      1.0000 0.39911  0.54063  0.40860  Biso   1.000  O 
  Si14     1.0000 0.39911  0.58433  0.40355  Biso   1.000  Si
  O19      1.0000 0.43393  0.60188  0.41645  Biso   1.000  O 
  Si15     1.0000 0.45831  0.63628  0.42465  Biso   1.000  Si
  O20      1.0000 0.44623  0.65053  0.45270  Biso   1.000  O 
  Si16     1.0000 0.44005  0.63818  0.48220  Biso   1.000  Si
  O21      1.0000 0.46433  0.60288  0.48840  Biso   1.000  O 
  O22      1.0000 0.39911  0.45333  0.48655  Biso   1.000  O 
  Si17     1.0000 0.35817  0.44308  0.48220  Biso   1.000  Si
  O23      1.0000 0.33389  0.47838  0.48840  Biso   1.000  O 
  Si18     1.0000 0.29911  0.49778  0.50000  Biso   1.000  Si
  O24      1.0000 0.29911  0.54063  0.49205  Biso   1.000  O 
  Si19     1.0000 0.29911  0.58348  0.50000  Biso   1.000  Si
  O25      1.0000 0.33389  0.60288  0.48840  Biso   1.000  O 
  Si20     1.0000 0.35817  0.63818  0.48220  Biso   1.000  Si
  O26      1.0000 0.39911  0.62793  0.48655  Biso   1.000  O 
  O27      1.0000 0.56429  0.47938  0.41645  Biso   1.000  O 
  Si21     1.0000 0.59911  0.49693  0.40355  Biso   1.000  Si
  O28      1.0000 0.59911  0.54063  0.40860  Biso   1.000  O 
  Si22     1.0000 0.59911  0.58433  0.40355  Biso   1.000  Si
  O29      1.0000 0.56429  0.60188  0.41645  Biso   1.000  O 
  Si23     1.0000 0.53991  0.63628  0.42465  Biso   1.000  Si
  O30      1.0000 0.55199  0.65053  0.45270  Biso   1.000  O 
  Si24     1.0000 0.55817  0.63818  0.48220  Biso   1.000  Si
  O31      1.0000 0.53389  0.60288  0.48840  Biso   1.000  O 
  O32      1.0000 0.59911  0.45333  0.48655  Biso   1.000  O 
  Si25     1.0000 0.64005  0.44308  0.48220  Biso   1.000  Si
  O33      1.0000 0.66433  0.47838  0.48840  Biso   1.000  O 
  Si26     1.0000 0.69911  0.49778  0.50000  Biso   1.000  Si
  O34      1.0000 0.69911  0.54063  0.49205  Biso   1.000  O 
  Si27     1.0000 0.69911  0.58348  0.50000  Biso   1.000  Si
  O35      1.0000 0.66433  0.60288  0.48840  Biso   1.000  O 
  Si28     1.0000 0.64005  0.63818  0.48220  Biso   1.000  Si
  O36      1.0000 0.59911  0.62793  0.48655  Biso   1.000  O 
