data_image0
_cell_length_a       35.675
_cell_length_b       35.675
_cell_length_c       35.618
_cell_angle_alpha    90
_cell_angle_beta     90
_cell_angle_gamma    90

_symmetry_space_group_name_H-M    "P 1"
_symmetry_int_tables_number       1

loop_
  _symmetry_equiv_pos_as_xyz
  'x, y, z'

loop_
  _atom_site_label
  _atom_site_occupancy
  _atom_site_fract_x
  _atom_site_fract_y
  _atom_site_fract_z
  _atom_site_thermal_displace_type
  _atom_site_B_iso_or_equiv
  _atom_site_type_symbol
  Si1      1.0000 0.47833  0.49667  0.49168  Biso   1.000  Si
  O1       1.0000 0.44149  0.51577  0.50943  Biso   1.000  O 
  Si2      1.0000 0.42239  0.55261  0.52718  Biso   1.000  Si
  O2       1.0000 0.44149  0.58945  0.50943  Biso   1.000  O 
  Si3      1.0000 0.47833  0.60855  0.49168  Biso   1.000  Si
  O3       1.0000 0.51517  0.58945  0.50943  Biso   1.000  O 
  Si4      1.0000 0.53427  0.55261  0.52718  Biso   1.000  Si
  O4       1.0000 0.51517  0.51577  0.50943  Biso   1.000  O 
  O5       1.0000 0.47833  0.45261  0.50128  Biso   1.000  O 
  Si5      1.0000 0.47833  0.40855  0.49168  Biso   1.000  Si
  O6       1.0000 0.47833  0.40261  0.44693  Biso   1.000  O 
  Si6      1.0000 0.47833  0.39667  0.40218  Biso   1.000  Si
  O7       1.0000 0.51517  0.41577  0.38443  Biso   1.000  O 
  Si7      1.0000 0.53427  0.45261  0.36668  Biso   1.000  Si
  O8       1.0000 0.51517  0.48945  0.38443  Biso   1.000  O 
  Si8      1.0000 0.47833  0.50855  0.40218  Biso   1.000  Si
  O9       1.0000 0.47833  0.50261  0.44693  Biso   1.000  O 
  O10      1.0000 0.47833  0.60261  0.44693  Biso   1.000  O 
  Si9      1.0000 0.47833  0.59667  0.40218  Biso   1.000  Si
  O11      1.0000 0.47833  0.55261  0.39258  Biso   1.000  O 
  O12      1.0000 0.44149  0.48945  0.38443  Biso   1.000  O 
  Si10     1.0000 0.42239  0.45261  0.36668  Biso   1.000  Si
  O13      1.0000 0.44149  0.41577  0.38443  Biso   1.000  O 
  O14      1.0000 0.51517  0.38945  0.50943  Biso   1.000  O 
  Si11     1.0000 0.53427  0.35261  0.52718  Biso   1.000  Si
  O15      1.0000 0.52833  0.35261  0.57193  Biso   1.000  O 
  Si12     1.0000 0.52239  0.35261  0.61668  Biso   1.000  Si
  O16      1.0000 0.54149  0.38945  0.63443  Biso   1.000  O 
  Si13     1.0000 0.57833  0.40855  0.65218  Biso   1.000  Si
  O17      1.0000 0.57833  0.45261  0.64258  Biso   1.000  O 
  Si14     1.0000 0.57833  0.49667  0.65218  Biso   1.000  Si
  O18      1.0000 0.54149  0.51577  0.63443  Biso   1.000  O 
  Si15     1.0000 0.52239  0.55261  0.61668  Biso   1.000  Si
  O19      1.0000 0.52833  0.55261  0.57193  Biso   1.000  O 
  O20      1.0000 0.44149  0.38945  0.50943  Biso   1.000  O 
  Si16     1.0000 0.42239  0.35261  0.52718  Biso   1.000  Si
  O21      1.0000 0.37833  0.35261  0.51758  Biso   1.000  O 
  Si17     1.0000 0.33427  0.35261  0.52718  Biso   1.000  Si
  O22      1.0000 0.31517  0.38945  0.50943  Biso   1.000  O 
  Si18     1.0000 0.27833  0.40855  0.49168  Biso   1.000  Si
  O23      1.0000 0.27833  0.45261  0.50128  Biso   1.000  O 
  Si19     1.0000 0.27833  0.49667  0.49168  Biso   1.000  Si
  O24      1.0000 0.31517  0.51577  0.50943  Biso   1.000  O 
  Si20     1.0000 0.33427  0.55261  0.52718  Biso   1.000  Si
  O25      1.0000 0.37833  0.55261  0.51758  Biso   1.000  O 
  O26      1.0000 0.42833  0.35261  0.57193  Biso   1.000  O 
  Si21     1.0000 0.43427  0.35261  0.61668  Biso   1.000  Si
  O27      1.0000 0.41517  0.38945  0.63443  Biso   1.000  O 
  Si22     1.0000 0.37833  0.40855  0.65218  Biso   1.000  Si
  O28      1.0000 0.37833  0.45261  0.64258  Biso   1.000  O 
  Si23     1.0000 0.37833  0.49667  0.65218  Biso   1.000  Si
  O29      1.0000 0.41517  0.51577  0.63443  Biso   1.000  O 
  Si24     1.0000 0.43427  0.55261  0.61668  Biso   1.000  Si
  O30      1.0000 0.42833  0.55261  0.57193  Biso   1.000  O 
  O31      1.0000 0.57833  0.55261  0.51758  Biso   1.000  O 
  Si25     1.0000 0.62239  0.55261  0.52718  Biso   1.000  Si
  O32      1.0000 0.64149  0.51577  0.50943  Biso   1.000  O 
  Si26     1.0000 0.67833  0.49667  0.49168  Biso   1.000  Si
  O33      1.0000 0.67833  0.45261  0.50128  Biso   1.000  O 
  Si27     1.0000 0.67833  0.40855  0.49168  Biso   1.000  Si
  O34      1.0000 0.64149  0.38945  0.50943  Biso   1.000  O 
  Si28     1.0000 0.62239  0.35261  0.52718  Biso   1.000  Si
  O35      1.0000 0.57833  0.35261  0.51758  Biso   1.000  O 
