data_image0
_cell_length_a       36.512
_cell_length_b       41.068
_cell_length_c       37.71
_cell_angle_alpha    90
_cell_angle_beta     90
_cell_angle_gamma    90

_symmetry_space_group_name_H-M    "P 1"
_symmetry_int_tables_number       1

loop_
  _symmetry_equiv_pos_as_xyz
  'x, y, z'

loop_
  _atom_site_label
  _atom_site_occupancy
  _atom_site_fract_x
  _atom_site_fract_y
  _atom_site_fract_z
  _atom_site_thermal_displace_type
  _atom_site_B_iso_or_equiv
  _atom_site_type_symbol
  Si1      1.0000 0.49445  0.49445  0.49556  Biso   1.000  Si
  O1       1.0000 0.45205  0.50515  0.49556  Biso   1.000  O 
  Si2      1.0000 0.40965  0.49445  0.49556  Biso   1.000  Si
  O2       1.0000 0.40675  0.45535  0.49556  Biso   1.000  O 
  Si3      1.0000 0.40965  0.41625  0.49556  Biso   1.000  Si
  O3       1.0000 0.45205  0.40555  0.49556  Biso   1.000  O 
  Si4      1.0000 0.49445  0.41625  0.49556  Biso   1.000  Si
  O4       1.0000 0.49735  0.45535  0.49556  Biso   1.000  O 
  O5       1.0000 0.51420  0.50870  0.53042  Biso   1.000  O 
  Si5      1.0000 0.54920  0.51810  0.55426  Biso   1.000  Si
  O6       1.0000 0.56150  0.55490  0.54556  Biso   1.000  O 
  Si6      1.0000 0.54920  0.59170  0.53686  Biso   1.000  Si
  O7       1.0000 0.53865  0.59465  0.49556  Biso   1.000  O 
  Si7      1.0000 0.54920  0.59170  0.45426  Biso   1.000  Si
  O8       1.0000 0.56150  0.55490  0.44556  Biso   1.000  O 
  Si8      1.0000 0.54920  0.51810  0.43686  Biso   1.000  Si
  O9       1.0000 0.51420  0.50870  0.46070  Biso   1.000  O 
  O10      1.0000 0.58250  0.49375  0.54540  Biso   1.000  O 
  Si9      1.0000 0.60345  0.46020  0.53682  Biso   1.000  Si
  O11      1.0000 0.61470  0.45935  0.49556  Biso   1.000  O 
  Si10     1.0000 0.60345  0.46020  0.45430  Biso   1.000  Si
  O12      1.0000 0.58250  0.49375  0.44572  Biso   1.000  O 
  O13      1.0000 0.57705  0.42990  0.54556  Biso   1.000  O 
  Si11     1.0000 0.55065  0.39960  0.55430  Biso   1.000  Si
  O14      1.0000 0.51420  0.40200  0.53040  Biso   1.000  O 
  O15      1.0000 0.51420  0.40200  0.46072  Biso   1.000  O 
  Si12     1.0000 0.55065  0.39960  0.43682  Biso   1.000  Si
  O16      1.0000 0.57705  0.42990  0.44556  Biso   1.000  O 
  O17      1.0000 0.38990  0.50870  0.53042  Biso   1.000  O 
  Si13     1.0000 0.35490  0.51810  0.55426  Biso   1.000  Si
  O18      1.0000 0.34260  0.55490  0.54556  Biso   1.000  O 
  Si14     1.0000 0.35490  0.59170  0.53686  Biso   1.000  Si
  O19      1.0000 0.38990  0.60110  0.56070  Biso   1.000  O 
  Si15     1.0000 0.40965  0.61535  0.59556  Biso   1.000  Si
  O20      1.0000 0.45205  0.60465  0.59556  Biso   1.000  O 
  Si16     1.0000 0.49445  0.61535  0.59556  Biso   1.000  Si
  O21      1.0000 0.51420  0.60110  0.56070  Biso   1.000  O 
  O22      1.0000 0.36545  0.51515  0.59556  Biso   1.000  O 
  Si17     1.0000 0.35490  0.51810  0.63686  Biso   1.000  Si
  O23      1.0000 0.38990  0.50870  0.66070  Biso   1.000  O 
  Si18     1.0000 0.40965  0.49445  0.69556  Biso   1.000  Si
  O24      1.0000 0.45205  0.50515  0.69556  Biso   1.000  O 
  Si19     1.0000 0.49445  0.49445  0.69556  Biso   1.000  Si
  O25      1.0000 0.51420  0.50870  0.66070  Biso   1.000  O 
  Si20     1.0000 0.54920  0.51810  0.63686  Biso   1.000  Si
  O26      1.0000 0.53865  0.51515  0.59556  Biso   1.000  O 
  O27      1.0000 0.38990  0.50870  0.46070  Biso   1.000  O 
  Si21     1.0000 0.35490  0.51810  0.43686  Biso   1.000  Si
  O28      1.0000 0.34260  0.55490  0.44556  Biso   1.000  O 
  Si22     1.0000 0.35490  0.59170  0.45426  Biso   1.000  Si
  O29      1.0000 0.38990  0.60110  0.43042  Biso   1.000  O 
  Si23     1.0000 0.40965  0.61535  0.39556  Biso   1.000  Si
  O30      1.0000 0.45205  0.60465  0.39556  Biso   1.000  O 
  Si24     1.0000 0.49445  0.61535  0.39556  Biso   1.000  Si
  O31      1.0000 0.51420  0.60110  0.43042  Biso   1.000  O 
  O32      1.0000 0.36545  0.51515  0.39556  Biso   1.000  O 
  Si25     1.0000 0.35490  0.51810  0.35426  Biso   1.000  Si
  O33      1.0000 0.38990  0.50870  0.33042  Biso   1.000  O 
  Si26     1.0000 0.40965  0.49445  0.29556  Biso   1.000  Si
  O34      1.0000 0.45205  0.50515  0.29556  Biso   1.000  O 
  Si27     1.0000 0.49445  0.49445  0.29556  Biso   1.000  Si
  O35      1.0000 0.51420  0.50870  0.33042  Biso   1.000  O 
  Si28     1.0000 0.54920  0.51810  0.35426  Biso   1.000  Si
  O36      1.0000 0.53865  0.51515  0.39556  Biso   1.000  O 
