data_image0
_cell_length_a       41.025
_cell_length_b       13.675
_cell_length_c       29.534
_cell_angle_alpha    90
_cell_angle_beta     90
_cell_angle_gamma    120

_symmetry_space_group_name_H-M    "P 1"
_symmetry_int_tables_number       1

loop_
  _symmetry_equiv_pos_as_xyz
  'x, y, z'

loop_
  _atom_site_label
  _atom_site_occupancy
  _atom_site_fract_x
  _atom_site_fract_y
  _atom_site_fract_z
  _atom_site_thermal_displace_type
  _atom_site_B_iso_or_equiv
  _atom_site_type_symbol
  O1       1.0000 0.28756  0.43133  0.22802  Biso   1.000  O 
  O2       1.0000 0.25489  0.52933  0.10532  Biso   1.000  O 
  O3       1.0000 0.32557  0.31010  0.08335  Biso   1.000  O 
  O4       1.0000 0.21446  0.64343  0.25002  Biso   1.000  O 
  O5       1.0000 0.22224  0.68997  0.41668  Biso   1.000  O 
  O6       1.0000 0.26232  0.57383  0.23242  Biso   1.000  O 
  O7       1.0000 0.29323  0.75950  0.43425  Biso   1.000  O 
  O8       1.0000 0.30239  0.45353  0.10092  Biso   1.000  O 
  O9       1.0000 0.22222  0.59103  0.16667  Biso   1.000  O 
  O10      1.0000 0.30812  0.33333  0.16667  Biso   1.000  O 
  O11      1.0000 0.19701  0.66667  0.33333  Biso   1.000  O 
  O12      1.0000 0.30812  0.59103  0.16667  Biso   1.000  O 
  Si1      1.0000 0.33323  0.22640  0.05255  Biso   1.000  Si
  Si2      1.0000 0.22212  0.55973  0.21922  Biso   1.000  Si
  Si3      1.0000 0.29779  0.33363  0.21922  Biso   1.000  Si
  Si4      1.0000 0.18668  0.66697  0.38588  Biso   1.000  Si
  Si5      1.0000 0.29779  0.55973  0.21922  Biso   1.000  Si
  Si6      1.0000 0.29769  0.56003  0.11412  Biso   1.000  Si
  Si7      1.0000 0.29769  0.33303  0.11412  Biso   1.000  Si
  Si8      1.0000 0.18658  0.66637  0.28078  Biso   1.000  Si
  Si9      1.0000 0.25777  0.77360  0.44745  Biso   1.000  Si
  Si10     1.0000 0.22232  0.56003  0.11412  Biso   1.000  Si
  O13      1.0000 0.41178  0.47067  0.39468  Biso   1.000  O 
  O14      1.0000 0.37911  0.56867  0.27198  Biso   1.000  O 
  O15      1.0000 0.33336  0.35663  0.25002  Biso   1.000  O 
  O16      1.0000 0.45219  0.35663  0.25002  Biso   1.000  O 
  O17      1.0000 0.34108  0.68997  0.41668  Biso   1.000  O 
  O18      1.0000 0.44447  0.31010  0.08335  Biso   1.000  O 
  O19      1.0000 0.33336  0.64343  0.25002  Biso   1.000  O 
  O20      1.0000 0.37343  0.24050  0.06575  Biso   1.000  O 
  O21      1.0000 0.36428  0.54647  0.39908  Biso   1.000  O 
  O22      1.0000 0.40434  0.42617  0.26758  Biso   1.000  O 
  O23      1.0000 0.35854  0.40897  0.33333  Biso   1.000  O 
  O24      1.0000 0.46966  0.33333  0.16667  Biso   1.000  O 
  O25      1.0000 0.35854  0.66667  0.33333  Biso   1.000  O 
  O26      1.0000 0.44444  0.40897  0.33333  Biso   1.000  O 
  Si11     1.0000 0.36898  0.43997  0.38588  Biso   1.000  Si
  Si12     1.0000 0.48009  0.33363  0.21922  Biso   1.000  Si
  Si13     1.0000 0.36898  0.66697  0.38588  Biso   1.000  Si
  Si14     1.0000 0.40890  0.22640  0.05255  Biso   1.000  Si
  Si15     1.0000 0.44434  0.43997  0.38588  Biso   1.000  Si
  Si16     1.0000 0.33343  0.77360  0.44745  Biso   1.000  Si
  Si17     1.0000 0.44454  0.44027  0.28078  Biso   1.000  Si
  Si18     1.0000 0.47999  0.33303  0.11412  Biso   1.000  Si
  Si19     1.0000 0.36888  0.66637  0.28078  Biso   1.000  Si
  Si20     1.0000 0.36888  0.44027  0.28078  Biso   1.000  Si
