data_image0
_cell_length_a       42.315
_cell_length_b       35.684
_cell_length_c       36.792
_cell_angle_alpha    90
_cell_angle_beta     90
_cell_angle_gamma    90

_symmetry_space_group_name_H-M    "P 1"
_symmetry_int_tables_number       1

loop_
  _symmetry_equiv_pos_as_xyz
  'x, y, z'

loop_
  _atom_site_label
  _atom_site_occupancy
  _atom_site_fract_x
  _atom_site_fract_y
  _atom_site_fract_z
  _atom_site_thermal_displace_type
  _atom_site_B_iso_or_equiv
  _atom_site_type_symbol
  Si1      1.0000 0.47962  0.48890  0.49049  Biso   1.000  Si
  Si2      1.0000 0.47865  0.60910  0.41906  Biso   1.000  Si
  O1       1.0000 0.46419  0.58965  0.45478  Biso   1.000  O 
  Si3      1.0000 0.44972  0.57020  0.49049  Biso   1.000  Si
  O2       1.0000 0.45835  0.52630  0.49049  Biso   1.000  O 
  O3       1.0000 0.47165  0.46465  0.45478  Biso   1.000  O 
  Si4      1.0000 0.47962  0.44040  0.41906  Biso   1.000  Si
  Si5      1.0000 0.44972  0.35910  0.41906  Biso   1.000  Si
  O4       1.0000 0.45835  0.40300  0.41906  Biso   1.000  O 
  Si6      1.0000 0.47962  0.48890  0.34763  Biso   1.000  Si
  O5       1.0000 0.47165  0.46465  0.38335  Biso   1.000  O 
  O6       1.0000 0.46419  0.58965  0.38335  Biso   1.000  O 
  Si7      1.0000 0.44972  0.57020  0.34763  Biso   1.000  Si
  O7       1.0000 0.45835  0.52630  0.34763  Biso   1.000  O 
  O8       1.0000 0.41189  0.35420  0.41906  Biso   1.000  O 
  Si8      1.0000 0.38085  0.32810  0.41906  Biso   1.000  Si
  O9       1.0000 0.34982  0.35420  0.41906  Biso   1.000  O 
  Si9      1.0000 0.31199  0.35910  0.41906  Biso   1.000  Si
  O10      1.0000 0.30335  0.40300  0.41906  Biso   1.000  O 
  Si10     1.0000 0.28209  0.44040  0.41906  Biso   1.000  Si
  O11      1.0000 0.29005  0.46465  0.45478  Biso   1.000  O 
  Si11     1.0000 0.28209  0.48890  0.49049  Biso   1.000  Si
  O12      1.0000 0.30335  0.52630  0.49049  Biso   1.000  O 
  Si12     1.0000 0.31199  0.57020  0.49049  Biso   1.000  Si
  O13      1.0000 0.34982  0.57510  0.49049  Biso   1.000  O 
  Si13     1.0000 0.38085  0.60120  0.49049  Biso   1.000  Si
  O14      1.0000 0.41189  0.57510  0.49049  Biso   1.000  O 
